      1 'GENROE' 1     5.0000      0.70000E-01  0.90000      0.90000E-01
          4.2800       0.0000       1.8400       1.7500      0.41000
         0.60000      0.20000      0.12000      0.11000      0.39000    /
      2 'GENCLS' 1     5.0000       0.0000    /

/ PSSECOMM PSSE Version (35)
1  'USRMSC'   'PSSECOMM'  512  0  5  0  0  50
1 1 6 1 2
/

